@<TRIPOS>MOLECULE
DA
 377 395 12 0 1
SMALL
USER_CHARGES
@<TRIPOS>ATOM
     1    P    0.000    0.000    0.000    P     1       DA   1.500000
     2  OP1    1.480    0.000    0.000  ON3     1       DA  -0.780000
     3  OP2   -0.678    1.316    0.000  ON3     1       DA  -0.780000
     4  O5'   -0.426   -0.903   -1.250  ON2     1       DA  -0.570000
     5  C5'   -0.298   -2.334   -1.154 CN8B     1       DA  -0.080000
     6  H5'   -0.913   -2.699   -0.332  HN8     1       DA   0.090000
     7 H5''    0.744   -2.595   -0.971  HN8     1       DA   0.090000
     8  C4'   -0.757   -2.985   -2.449  CN7     1       DA   0.160000
     9  H4'   -0.342   -3.991   -2.517  HN7     1       DA   0.090000
    10  O4'   -2.201   -3.188   -2.389  ON6     1       DA  -0.500000
    11  C1'   -2.860   -2.240   -3.216 CN7B     1       DA   0.160000
    12  H1'   -3.433   -2.762   -3.983  HN7     1       DA   0.090000
    13   N9   -3.936   -1.525   -2.414  NN2     1       DA  -0.050000
    14   C5   -5.923   -0.940   -1.692  CN5     1       DA   0.280000
    15   N7   -5.013   -0.084   -1.082  NN4     1       DA  -0.710000
    16   C8   -3.860   -0.472   -1.541  CN4     1       DA   0.340000
    17   H8   -2.906   -0.011   -1.332  HN3     1       DA   0.120000
    18   N1   -7.904   -2.001   -2.348 NN3A     1       DA  -0.740000
    19   C2   -7.143   -2.792   -3.099  CN4     1       DA   0.500000
    20   H2   -7.596   -3.570   -3.696  HN3     1       DA   0.130000
    21   N3   -5.832   -2.789   -3.249 NN3A     1       DA  -0.750000
    22   C4   -5.266   -1.817   -2.502  CN5     1       DA   0.430000
    23   C6   -7.317   -1.045   -1.617  CN2     1       DA   0.460000
    24   N6   -8.079   -0.244   -0.859  NN1     1       DA  -0.770000
    25  H61   -9.082   -0.367   -0.844  HN1     1       DA   0.380000
    26  H62   -7.651    0.481   -0.302  HN1     1       DA   0.380000
    27  C2'   -1.799   -1.296   -3.782  CN8     1       DA  -0.180000
    28 H2''   -2.338   -1.502   -4.707  HN8     1       DA   0.090000
    29  H2'   -1.517   -0.243   -3.753  HN8     1       DA   0.090000
    30  C3'   -0.540   -2.163   -3.720  CN7     1       DA   0.010000
    31  H3'    0.335   -1.525   -3.596  HN7     1       DA   0.090000
    32  O3'   -0.463   -2.888   -4.939  ON2     1       DA  -0.570000
    33    P   -0.236   -2.118   -6.335    P     2      DA3   1.500000
    34  OP2   -0.199   -3.126   -7.418  ON3     2      DA3  -0.780000
    35  OP1   -1.362   -1.179   -6.533  ON3     2      DA3  -0.780000
    36  O5'    1.167   -1.385   -6.105  ON2     2      DA3  -0.570000
    37  C5'    1.430   -0.764   -4.833 CN8B     2      DA3  -0.080000
    38  H5'    1.383   -1.516   -4.045  HN8     2      DA3   0.090000
    39 H5''    0.684    0.007   -4.642  HN8     2      DA3   0.090000
    40  C4'    2.813   -0.132   -4.838  CN7     2      DA3   0.160000
    41  H4'    2.874    0.616   -4.048  HN7     2      DA3   0.090000
    42  O4'    3.796   -1.144   -4.461  ON6     2      DA3  -0.500000
    43  C1'    4.528   -1.561   -5.604 CN7B     2      DA3   0.160000
    44  H1'    5.587   -1.353   -5.454  HN7     2      DA3   0.090000
    45   N9    4.489   -3.077   -5.708  NN2     2      DA3  -0.050000
    46   C5    5.152   -5.167   -5.630  CN5     2      DA3   0.280000
    47   N7    3.878   -5.177   -6.186  NN4     2      DA3  -0.710000
    48   C8    3.535   -3.923   -6.209  CN4     2      DA3   0.340000
    49   H8    2.621   -3.523   -6.621  HN3     2      DA3   0.120000
    50   N1    7.233   -5.836   -4.789 NN3A     2      DA3  -0.740000
    51   C2    7.468   -4.547   -4.557  CN4     2      DA3   0.500000
    52   H2    8.405   -4.240   -4.117  HN3     2      DA3   0.130000
    53   N3    6.694   -3.504   -4.789 NN3A     2      DA3  -0.750000
    54   C4    5.523   -3.888   -5.339  CN5     2      DA3   0.430000
    55   C6    6.062   -6.190   -5.336  CN2     2      DA3   0.460000
    56   N6    5.820   -7.486   -5.573  NN1     2      DA3  -0.770000
    57  H62    4.942   -7.769   -5.984  HN1     2      DA3   0.380000
    58  H61    6.515   -8.181   -5.339  HN1     2      DA3   0.380000
    59  C2'    3.933   -0.855   -6.824  CN8     2      DA3  -0.180000
    60 H2''    4.987   -0.664   -7.027  HN8     2      DA3   0.090000
    61  H2'    3.420   -1.090   -7.756  HN8     2      DA3   0.090000
    62  C3'    3.301    0.387   -6.192  CN7     2      DA3   0.140000
    63  H3'    2.447    0.704   -6.790  HN7     2      DA3   0.090000
    64  O3'    4.295    1.401   -6.161  ON5     2      DA3  -0.660000
    65 HO3'    4.585    1.710   -7.023  HN5     2      DA3   0.430000
    66  O5'    0.820   -4.791    1.434  ON5     3      DA5  -0.660000
    67  C5'    0.247   -4.401    0.173 CN8B     3      DA5   0.050000
    68  H5'   -0.379   -5.208   -0.208  HN8     3      DA5   0.090000
    69 H5''    1.044   -4.192   -0.541  HN8     3      DA5   0.090000
    70  C4'   -0.603   -3.153    0.352  CN7     3      DA5   0.160000
    71  H4'   -0.738   -2.663   -0.612  HN7     3      DA5   0.090000
    72  O4'   -1.949   -3.552    0.752  ON6     3      DA5  -0.500000
    73  C1'   -2.129   -3.210    2.279 CN7B     3      DA5   0.160000
    74  H1'   -2.945   -2.496    2.390  HN7     3      DA5   0.090000
    75   N9   -2.615   -4.412    3.072  NN2     3      DA5  -0.050000
    76   C5   -3.952   -5.729    4.208  CN5     3      DA5   0.280000
    77   N7   -2.688   -6.302    4.269  NN4     3      DA5  -0.710000
    78   C8   -1.940   -5.488    3.585  CN4     3      DA5   0.340000
    79   H8   -0.872   -5.572    3.445  HN3     3      DA5   0.120000
    80   N1   -6.241   -5.320    4.491 NN3A     3      DA5  -0.740000
    81   C2   -6.057   -4.222    3.762  CN4     3      DA5   0.500000
    82   H2   -6.891   -3.569    3.550  HN3     3      DA5   0.130000
    83   N3   -4.949   -3.761    3.214 NN3A     3      DA5  -0.750000
    84   C4   -3.907   -4.578    3.479  CN5     3      DA5   0.430000
    85   C6   -5.190   -6.113    4.739  CN2     3      DA5   0.460000
    86   N6   -5.369   -7.220    5.472  NN1     3      DA5  -0.770000
    87  H61   -6.286   -7.447    5.829  HN1     3      DA5   0.380000
    88  H62   -4.586   -7.828    5.668  HN1     3      DA5   0.380000
    89  C2'   -0.779   -2.674    2.759  CN8     3      DA5  -0.180000
    90  H2'    0.007   -2.914    3.475  HN8     3      DA5   0.090000
    91 H2''   -1.415   -1.890    3.168  HN8     3      DA5   0.090000
    92  C3'   -0.148   -2.191    1.452  CN7     3      DA5   0.010000
    93  H3'    0.935   -2.303    1.498  HN7     3      DA5   0.090000
    94  O3'   -0.504   -0.826    1.287  ON2     3      DA5  -0.570000
    95 HO5'    1.383   -5.568    1.469  HN5     3      DA5   0.430000
    96    P    4.233    4.349    4.839    P     4       DT   1.500000
    97  OP2    4.146    5.073    6.127  ON3     4       DT  -0.780000
    98  OP1    5.209    3.240    4.928  ON3     4       DT  -0.780000
    99  O5'    4.483    5.312    3.587  ON2     4       DT  -0.570000
   100  C5'    4.119    4.856    2.271 CN8B     4       DT  -0.080000
   101  H5'    3.050    4.644    2.242  HN8     4       DT   0.090000
   102 H5''    4.675    3.949    2.033  HN8     4       DT   0.090000
   103  C4'    4.443    5.926    1.241  CN7     4       DT   0.160000
   104  H4'    4.507    5.472    0.252  HN7     4       DT   0.090000
   105  O4'    3.316    6.849    1.148  ON6     4       DT  -0.500000
   106  C1'    3.636    8.075    1.789 CN7B     4       DT   0.160000
   107  H1'    3.576    8.889    1.067  HN7     4       DT   0.090000
   108   N1    2.541    8.427    2.798 NN2B     4       DT  -0.340000
   109   C6    2.485    7.890    4.057  CN3     4       DT   0.170000
   110   H6    3.236    7.183    4.377  HN3     4       DT   0.170000
   111   C2    1.644    9.368    2.365 CN1T     4       DT   0.510000
   112   O2    1.680    9.856    1.247  ON1     4       DT  -0.410000
   113   N3    0.684    9.734    3.285 NN2U     4       DT  -0.460000
   114   H3   -0.043   10.481    2.966  HN2     4       DT   0.360000
   115   C4    0.551    9.247    4.570  CN1     4       DT   0.500000
   116   O4   -0.350    9.652    5.302  ON1     4       DT  -0.450000
   117   C5    1.540    8.265    4.931 CN3T     4       DT  -0.150000
   118   C7    1.470    7.683    6.311  CN9     4       DT  -0.110000
   119  H71    2.396    7.896    6.844  HN9     4       DT   0.070000
   120  H72    0.632    8.124    6.850  HN9     4       DT   0.070000
   121  H73    1.330    6.604    6.245  HN9     4       DT   0.070000
   122  C2'    5.019    7.922    2.425  CN8     4       DT  -0.180000
   123  H2'    5.491    7.928    3.407  HN8     4       DT   0.090000
   124 H2''    5.171    8.888    1.944  HN8     4       DT   0.090000
   125  C3'    5.641    6.820    1.566  CN7     4       DT   0.010000
   126  H3'    6.363    6.260    2.160  HN7     4       DT   0.090000
   127  O3'    6.280    7.449    0.464  ON2     4       DT  -0.570000
   128    P    7.550    8.411    0.696    P     5      DT3   1.500000
   129  OP1    7.131    9.529    1.570  ON3     5      DT3  -0.780000
   130  OP2    7.996    8.915   -0.622  ON3     5      DT3  -0.780000
   131  O5'    8.608    7.430    1.388  ON2     5      DT3  -0.570000
   132  C5'    8.150    6.505    2.392 CN8B     5      DT3  -0.080000
   133  H5'    7.403    5.839    1.959  HN8     5      DT3   0.090000
   134 H5''    7.706    7.057    3.220  HN8     5      DT3   0.090000
   135  C4'    9.316    5.679    2.909  CN7     5      DT3   0.160000
   136  H4'    9.059    5.252    3.878  HN7     5      DT3   0.090000
   137  O4'    9.499    4.522    2.037  ON6     5      DT3  -0.500000
   138  C1'   10.642    4.707    1.215 CN7B     5      DT3   0.160000
   139  H1'   11.360    3.910    1.406  HN7     5      DT3   0.090000
   140   N1   10.262    4.485   -0.250 NN2B     5      DT3  -0.340000
   141   C6    9.665    5.447   -1.022  CN3     5      DT3   0.170000
   142   H6    9.443    6.416   -0.600  HN3     5      DT3   0.170000
   143   C2   10.613    3.260   -0.753 CN1T     5      DT3   0.510000
   144   O2   11.145    2.392   -0.080  ON1     5      DT3  -0.410000
   145   N3   10.324    3.067   -2.089 NN2U     5      DT3  -0.460000
   146   H3   10.594    2.100   -2.515  HN2     5      DT3   0.360000
   147   C4    9.728    3.976   -2.939  CN1     5      DT3   0.500000
   148   O4    9.520    3.688   -4.116  ON1     5      DT3  -0.450000
   149   C5    9.397    5.231   -2.317 CN3T     5      DT3  -0.150000
   150   C7    8.744    6.278   -3.170  CN9     5      DT3  -0.110000
   151  H73    7.768    6.530   -2.754  HN9     5      DT3   0.070000
   152  H72    8.619    5.896   -4.183  HN9     5      DT3   0.070000
   153  H71    9.370    7.171   -3.193  HN9     5      DT3   0.070000
   154  C2'   11.194    6.107    1.491  CN8     5      DT3  -0.180000
   155  H2'   11.362    7.054    0.979  HN8     5      DT3   0.090000
   156 H2''   12.131    5.553    1.545  HN8     5      DT3   0.090000
   157  C3'   10.678    6.376    2.906  CN7     5      DT3   0.140000
   158  H3'   10.538    7.448    3.044  HN7     5      DT3   0.090000
   159  O3'   11.648    5.876    3.815  ON5     5      DT3  -0.660000
   160 HO3'   12.494    6.329    3.795  HN5     5      DT3   0.430000
   161  O5'    1.958    1.721    0.930  ON5     6      DT5  -0.660000
   162  C5'    0.788    2.111    1.674 CN8B     6      DT5   0.050000
   163  H5'    0.060    1.301    1.657  HN8     6      DT5   0.090000
   164 H5''    0.351    3.002    1.223  HN8     6      DT5   0.090000
   165  C4'    1.166    2.413    3.115  CN7     6      DT5   0.160000
   166  H4'    0.392    3.030    3.572  HN7     6      DT5   0.090000
   167  O4'    1.142    1.170    3.880  ON6     6      DT5  -0.500000
   168  C1'    2.468    0.738    4.147 CN7B     6      DT5   0.160000
   169  H1'    2.623    0.685    5.225  HN7     6      DT5   0.090000
   170   N1    2.633   -0.717    3.703 NN2B     6      DT5  -0.340000
   171   C6    2.876   -1.079    2.405  CN3     6      DT5   0.170000
   172   H6    2.959   -0.321    1.639  HN3     6      DT5   0.170000
   173   C2    2.573   -1.635    4.718 CN1T     6      DT5   0.510000
   174   O2    2.357   -1.330    5.880  ON1     6      DT5  -0.410000
   175   N3    2.773   -2.947    4.339 NN2U     6      DT5  -0.460000
   176   H3    2.731   -3.698    5.127  HN2     6      DT5   0.360000
   177   C4    3.023   -3.401    3.060  CN1     6      DT5   0.500000
   178   O4    3.186   -4.601    2.843  ON1     6      DT5  -0.450000
   179   C5    3.067   -2.361    2.065 CN3T     6      DT5  -0.150000
   180   C7    3.333   -2.768    0.646  CN9     6      DT5  -0.110000
   181  H73    2.494   -2.469    0.018  HN9     6      DT5   0.070000
   182  H72    3.458   -3.849    0.595  HN9     6      DT5   0.070000
   183  H71    4.242   -2.281    0.292  HN9     6      DT5   0.070000
   184  C2'    3.425    1.699    3.439  CN8     6      DT5  -0.180000
   185  H2'    4.178    1.697    2.651  HN8     6      DT5   0.090000
   186 H2''    3.917    1.672    4.411  HN8     6      DT5   0.090000
   187  C3'    2.576    2.967    3.331  CN7     6      DT5   0.010000
   188  H3'    2.882    3.536    2.453  HN7     6      DT5   0.090000
   189  O3'    2.786    3.721    4.516  ON2     6      DT5  -0.570000
   190 HO5'    1.866    1.500   -0.000  HN5     6      DT5   0.430000
   191    P    0.000    0.000    0.000    P     7       DC   1.500000
   192  OP2   -0.678    1.316    0.000  ON3     7       DC  -0.780000
   193  OP1    1.480    0.000    0.000  ON3     7       DC  -0.780000
   194  O5'   -0.426   -0.903   -1.250  ON2     7       DC  -0.570000
   195  C5'   -0.298   -2.334   -1.154 CN8B     7       DC  -0.080000
   196  H5'   -0.913   -2.699   -0.332  HN8     7       DC   0.090000
   197 H5''    0.744   -2.595   -0.971  HN8     7       DC   0.090000
   198  C4'   -0.757   -2.985   -2.449  CN7     7       DC   0.160000
   199  H4'   -0.342   -3.991   -2.517  HN7     7       DC   0.090000
   200  O4'   -2.201   -3.188   -2.389  ON6     7       DC  -0.500000
   201  C1'   -2.860   -2.240   -3.216 CN7B     7       DC   0.160000
   202  H1'   -3.433   -2.762   -3.983  HN7     7       DC   0.090000
   203   N1   -3.905   -1.561   -2.399  NN2     7       DC  -0.130000
   204   C6   -3.588   -0.532   -1.568  CN3     7       DC   0.050000
   205   H6   -2.565   -0.194   -1.493  HN3     7       DC   0.170000
   206   C5   -4.543    0.087   -0.823  CN3     7       DC  -0.130000
   207   H5   -4.270    0.911   -0.163  HN3     7       DC   0.070000
   208   C2   -5.214   -2.008   -2.509  CN1     7       DC   0.520000
   209   O2   -5.455   -2.950   -3.279 ON1C     7       DC  -0.490000
   210   N3   -6.183   -1.403   -1.773  NN3     7       DC  -0.660000
   211   C4   -5.882   -0.395   -0.958  CN2     7       DC   0.650000
   212   N4   -6.859    0.159   -0.265  NN1     7       DC  -0.750000
   213  H41   -7.790   -0.210   -0.388  HN1     7       DC   0.370000
   214  H42   -6.665    0.926    0.363  HN1     7       DC   0.330000
   215  C2'   -1.799   -1.296   -3.782  CN8     7       DC  -0.180000
   216 H2''   -2.338   -1.502   -4.707  HN8     7       DC   0.090000
   217  H2'   -1.517   -0.243   -3.753  HN8     7       DC   0.090000
   218  C3'   -0.540   -2.163   -3.720  CN7     7       DC   0.010000
   219  H3'    0.335   -1.525   -3.596  HN7     7       DC   0.090000
   220  O3'   -0.463   -2.888   -4.939  ON2     7       DC  -0.570000
   221    P   -0.236   -2.118   -6.335    P     8      DC3   1.500000
   222  OP2   -0.199   -3.126   -7.418  ON3     8      DC3  -0.780000
   223  OP1   -1.362   -1.179   -6.533  ON3     8      DC3  -0.780000
   224  O5'    1.167   -1.385   -6.105  ON2     8      DC3  -0.570000
   225  C5'    1.430   -0.764   -4.833 CN8B     8      DC3  -0.080000
   226 H5''    0.684    0.007   -4.642  HN8     8      DC3   0.090000
   227  H5'    1.383   -1.516   -4.045  HN8     8      DC3   0.090000
   228  C4'    2.813   -0.132   -4.838  CN7     8      DC3   0.160000
   229  H4'    2.874    0.616   -4.048  HN7     8      DC3   0.090000
   230  O4'    3.796   -1.144   -4.461  ON6     8      DC3  -0.500000
   231  C1'    4.528   -1.561   -5.604 CN7B     8      DC3   0.160000
   232  H1'    5.587   -1.353   -5.454  HN7     8      DC3   0.090000
   233   N1    4.468   -3.049   -5.674  NN2     8      DC3  -0.130000
   234   C6    3.389   -3.684   -6.203  CN3     8      DC3   0.050000
   235   H6    2.556   -3.110   -6.581  HN3     8      DC3   0.170000
   236   C5    3.337   -5.042   -6.266  CN3     8      DC3  -0.130000
   237   H5    2.464   -5.535   -6.693  HN3     8      DC3   0.070000
   238   C2    5.548   -3.768   -5.183  CN1     8      DC3   0.520000
   239   O2    6.510   -3.145   -4.709 ON1C     8      DC3  -0.490000
   240   N3    5.515   -5.127   -5.236  NN3     8      DC3  -0.660000
   241   C4    4.464   -5.757   -5.752  CN2     8      DC3   0.650000
   242   N4    4.480   -7.077   -5.782  NN1     8      DC3  -0.750000
   243  H41    5.294   -7.545   -5.409  HN1     8      DC3   0.370000
   244  H42    3.698   -7.587   -6.166  HN1     8      DC3   0.330000
   245  C2'    3.933   -0.855   -6.824  CN8     8      DC3  -0.180000
   246  H2'    3.420   -1.090   -7.756  HN8     8      DC3   0.090000
   247 H2''    4.987   -0.664   -7.027  HN8     8      DC3   0.090000
   248  C3'    3.301    0.387   -6.192  CN7     8      DC3   0.140000
   249  H3'    2.447    0.704   -6.790  HN7     8      DC3   0.090000
   250  O3'    4.295    1.401   -6.161  ON5     8      DC3  -0.660000
   251 HO3'    4.585    1.710   -7.023  HN5     8      DC3   0.430000
   252  O5'    0.821   -4.791    1.434  ON5     9      DC5  -0.660000
   253  C5'    0.247   -4.401    0.173 CN8B     9      DC5   0.050000
   254  H5'   -0.379   -5.208   -0.208  HN8     9      DC5   0.090000
   255 H5''    1.044   -4.192   -0.541  HN8     9      DC5   0.090000
   256  C4'   -0.603   -3.153    0.352  CN7     9      DC5   0.160000
   257  H4'   -0.738   -2.663   -0.612  HN7     9      DC5   0.090000
   258  O4'   -1.949   -3.552    0.752  ON6     9      DC5  -0.500000
   259  C1'   -2.129   -3.210    2.279 CN7B     9      DC5   0.160000
   260  H1'   -2.945   -2.496    2.390  HN7     9      DC5   0.090000
   261   N1   -2.606   -4.409    3.023  NN2     9      DC5  -0.130000
   262   C6   -1.740   -5.380    3.420  CN3     9      DC5   0.050000
   263   H6   -0.688   -5.290    3.196  HN3     9      DC5   0.170000
   264   C5   -2.178   -6.474    4.099  CN3     9      DC5  -0.130000
   265   H5   -1.470   -7.243    4.409  HN3     9      DC5   0.070000
   266   C2   -3.962   -4.508    3.302  CN1     9      DC5   0.520000
   267   O2   -4.713   -3.597    2.920 ON1C     9      DC5  -0.490000
   268   N3   -4.420   -5.594    3.980  NN3     9      DC5  -0.660000
   269   C4   -3.580   -6.548    4.372  CN2     9      DC5   0.650000
   270   N4   -4.074   -7.582    5.027  NN1     9      DC5  -0.750000
   271  H41   -5.069   -7.597    5.200  HN1     9      DC5   0.370000
   272  H42   -3.464   -8.325    5.339  HN1     9      DC5   0.330000
   273  C2'   -0.779   -2.674    2.759  CN8     9      DC5  -0.180000
   274  H2'    0.007   -2.914    3.475  HN8     9      DC5   0.090000
   275 H2''   -1.415   -1.890    3.168  HN8     9      DC5   0.090000
   276  C3'   -0.148   -2.191    1.452  CN7     9      DC5   0.010000
   277  H3'    0.935   -2.303    1.498  HN7     9      DC5   0.090000
   278  O3'   -0.504   -0.826    1.287  ON2     9      DC5  -0.570000
   279 HO5'    1.383   -5.568    1.469  HN5     9      DC5   0.430000
   280    P    0.000    0.000    0.000    P    10       DG   1.500000
   281  OP1    1.480    0.000    0.000  ON3    10       DG  -0.780000
   282  OP2   -0.678    1.316    0.000  ON3    10       DG  -0.780000
   283  O5'   -0.426   -0.903   -1.250  ON2    10       DG  -0.570000
   284  C5'   -0.298   -2.334   -1.154 CN8B    10       DG  -0.080000
   285 H5''    0.744   -2.595   -0.971  HN8    10       DG   0.090000
   286  H5'   -0.913   -2.699   -0.332  HN8    10       DG   0.090000
   287  C4'   -0.757   -2.985   -2.449  CN7    10       DG   0.160000
   288  H4'   -0.342   -3.991   -2.517  HN7    10       DG   0.090000
   289  O4'   -2.201   -3.188   -2.389  ON6    10       DG  -0.500000
   290  C1'   -2.860   -2.240   -3.216 CN7B    10       DG   0.160000
   291  H1'   -3.433   -2.762   -3.983  HN7    10       DG   0.090000
   292   N9   -3.905   -1.561   -2.398 NN2B    10       DG  -0.020000
   293   C4   -5.243   -1.866   -2.379  CN5    10       DG   0.260000
   294   N2   -7.858   -3.864   -3.553  NN1    10       DG  -0.680000
   295  H22   -7.362   -4.475   -4.185  HN1    10       DG   0.320000
   296  H21   -8.851   -4.023   -3.459  HN1    10       DG   0.350000
   297   N3   -5.814   -2.854   -3.118 NN3G    10       DG  -0.740000
   298   C2   -7.125   -2.945   -2.910  CN2    10       DG   0.750000
   299   N1   -7.812   -2.123   -2.039 NN2G    10       DG  -0.340000
   300   H1   -8.797   -2.268   -1.950  HN2    10       DG   0.260000
   301   C6   -7.240   -1.102   -1.271  CN1    10       DG   0.540000
   302   O6   -7.949   -0.426   -0.527  ON1    10       DG  -0.510000
   303   C5   -5.840   -1.008   -1.494 CN5G    10       DG   0.000000
   304   N7   -4.897   -0.147   -0.946  NN4    10       DG  -0.600000
   305   C8   -3.772   -0.513   -1.510  CN4    10       DG   0.250000
   306   H8   -2.802   -0.073   -1.335  HN3    10       DG   0.160000
   307  C2'   -1.799   -1.296   -3.782  CN8    10       DG  -0.180000
   308 H2''   -2.338   -1.502   -4.707  HN8    10       DG   0.090000
   309  H2'   -1.517   -0.243   -3.753  HN8    10       DG   0.090000
   310  C3'   -0.540   -2.163   -3.720  CN7    10       DG   0.010000
   311  H3'    0.335   -1.525   -3.596  HN7    10       DG   0.090000
   312  O3'   -0.463   -2.888   -4.939  ON2    10       DG  -0.570000
   313    P   -0.236   -2.118   -6.335    P    11      DG3   1.500000
   314  OP2   -0.199   -3.126   -7.418  ON3    11      DG3  -0.780000
   315  OP1   -1.362   -1.179   -6.533  ON3    11      DG3  -0.780000
   316  O5'    1.167   -1.385   -6.105  ON2    11      DG3  -0.570000
   317  C5'    1.430   -0.764   -4.833 CN8B    11      DG3  -0.080000
   318  H5'    1.383   -1.516   -4.045  HN8    11      DG3   0.090000
   319 H5''    0.684    0.007   -4.642  HN8    11      DG3   0.090000
   320  C4'    2.813   -0.132   -4.838  CN7    11      DG3   0.160000
   321  H4'    2.874    0.616   -4.048  HN7    11      DG3   0.090000
   322  O4'    3.796   -1.144   -4.461  ON6    11      DG3  -0.500000
   323  C1'    4.528   -1.561   -5.604 CN7B    11      DG3   0.160000
   324  H1'    5.587   -1.353   -5.454  HN7    11      DG3   0.090000
   325   N9    4.468   -3.049   -5.673 NN2B    11      DG3  -0.020000
   326   C4    5.437   -3.919   -5.239  CN5    11      DG3   0.260000
   327   N2    8.568   -4.392   -3.762  NN1    11      DG3  -0.680000
   328  H22    8.847   -3.435   -3.597  HN1    11      DG3   0.320000
   329  H21    9.213   -5.108   -3.460  HN1    11      DG3   0.350000
   330   N3    6.612   -3.536   -4.671 NN3G    11      DG3  -0.740000
   331   C2    7.371   -4.575   -4.336  CN2    11      DG3   0.750000
   332   N1    6.995   -5.887   -4.546 NN2G    11      DG3  -0.340000
   333   H1    7.634   -6.600   -4.259  HN2    11      DG3   0.260000
   334   C6    5.790   -6.298   -5.129  CN1    11      DG3   0.540000
   335   O6    5.558   -7.498   -5.270  ON1    11      DG3  -0.510000
   336   C5    4.981   -5.187   -5.484 CN5G    11      DG3   0.000000
   337   N7    3.726   -5.140   -6.079  NN4    11      DG3  -0.600000
   338   C8    3.467   -3.859   -6.169  CN4    11      DG3   0.250000
   339   H8    2.571   -3.420   -6.582  HN3    11      DG3   0.160000
   340  C2'    3.933   -0.855   -6.824  CN8    11      DG3  -0.180000
   341 H2''    4.987   -0.664   -7.027  HN8    11      DG3   0.090000
   342  H2'    3.420   -1.090   -7.756  HN8    11      DG3   0.090000
   343  C3'    3.301    0.387   -6.192  CN7    11      DG3   0.140000
   344  H3'    2.447    0.704   -6.790  HN7    11      DG3   0.090000
   345  O3'    4.295    1.401   -6.161  ON5    11      DG3  -0.660000
   346 HO3'    4.585    1.710   -7.023  HN5    11      DG3   0.430000
   347  O5'    0.821   -4.791    1.434  ON5    12      DG5  -0.660000
   348  C5'    0.247   -4.401    0.173 CN8B    12      DG5   0.050000
   349 H5''    1.044   -4.192   -0.541  HN8    12      DG5   0.090000
   350  H5'   -0.379   -5.208   -0.208  HN8    12      DG5   0.090000
   351  C4'   -0.603   -3.153    0.352  CN7    12      DG5   0.160000
   352  H4'   -0.738   -2.663   -0.612  HN7    12      DG5   0.090000
   353  O4'   -1.949   -3.552    0.752  ON6    12      DG5  -0.500000
   354  C1'   -2.129   -3.210    2.279 CN7B    12      DG5   0.160000
   355  H1'   -2.945   -2.496    2.390  HN7    12      DG5   0.090000
   356   N9   -2.606   -4.410    3.023 NN2B    12      DG5  -0.020000
   357   C4   -3.904   -4.674    3.385  CN5    12      DG5   0.260000
   358   N2   -7.255   -3.688    3.382  NN1    12      DG5  -0.680000
   359  H21   -8.177   -3.976    3.676  HN1    12      DG5   0.320000
   360  H22   -7.196   -2.813    2.880  HN1    12      DG5   0.350000
   361   N3   -4.958   -3.861    3.107 NN3G    12      DG5  -0.740000
   362   C2   -6.106   -4.353    3.563  CN2    12      DG5   0.750000
   363   N1   -6.201   -5.552    4.239 NN2G    12      DG5  -0.340000
   364   H1   -7.110   -5.838    4.544  HN2    12      DG5   0.260000
   365   C6   -5.127   -6.401    4.534  CN1    12      DG5   0.540000
   366   O6   -5.326   -7.449    5.146  ON1    12      DG5  -0.510000
   367   C5   -3.902   -5.875    4.044 CN5G    12      DG5   0.000000
   368   N7   -2.611   -6.384    4.115  NN4    12      DG5  -0.600000
   369   C8   -1.884   -5.485    3.500  CN4    12      DG5   0.250000
   370   H8   -0.815   -5.527    3.348  HN3    12      DG5   0.160000
   371  C2'   -0.779   -2.674    2.759  CN8    12      DG5  -0.180000
   372 H2''   -1.415   -1.890    3.168  HN8    12      DG5   0.090000
   373  H2'    0.007   -2.914    3.475  HN8    12      DG5   0.090000
   374  C3'   -0.148   -2.191    1.452  CN7    12      DG5   0.010000
   375  H3'    0.935   -2.303    1.498  HN7    12      DG5   0.090000
   376  O3'   -0.504   -0.826    1.287  ON2    12      DG5  -0.570000
   377 HO5'    1.383   -5.568    1.469  HN5    12      DG5   0.430000
@<TRIPOS>BOND
     1      1      2 1
     2      1      3 1
     3      1      4 1
     4      4      5 1
     5      5      6 1
     6      5      7 1
     7      5      8 1
     8      8      9 1
     9      8     10 1
    10      8     30 1
    11     10     11 1
    12     11     12 1
    13     11     13 1
    14     11     27 1
    15     13     16 1
    16     13     22 1
    17     14     15 1
    18     14     22 1
    19     14     23 1
    20     15     16 1
    21     16     17 1
    22     18     19 1
    23     18     23 1
    24     19     20 1
    25     19     21 1
    26     21     22 1
    27     23     24 1
    28     24     25 1
    29     24     26 1
    30     27     28 1
    31     27     29 1
    32     27     30 1
    33     30     31 1
    34     30     32 1
    35     33     34 1
    36     33     35 1
    37     33     36 1
    38     36     37 1
    39     37     38 1
    40     37     39 1
    41     37     40 1
    42     40     41 1
    43     40     42 1
    44     40     62 1
    45     42     43 1
    46     43     44 1
    47     43     45 1
    48     43     59 1
    49     45     48 1
    50     45     54 1
    51     46     47 1
    52     46     54 1
    53     46     55 1
    54     47     48 1
    55     48     49 1
    56     50     51 1
    57     50     55 1
    58     51     52 1
    59     51     53 1
    60     53     54 1
    61     55     56 1
    62     56     57 1
    63     56     58 1
    64     59     60 1
    65     59     61 1
    66     59     62 1
    67     62     63 1
    68     62     64 1
    69     64     65 1
    70     66     67 1
    71     66     95 1
    72     67     68 1
    73     67     69 1
    74     67     70 1
    75     70     71 1
    76     70     72 1
    77     70     92 1
    78     72     73 1
    79     73     74 1
    80     73     75 1
    81     73     89 1
    82     75     78 1
    83     75     84 1
    84     76     77 1
    85     76     84 1
    86     76     85 1
    87     77     78 1
    88     78     79 1
    89     80     81 1
    90     80     85 1
    91     81     82 1
    92     81     83 1
    93     83     84 1
    94     85     86 1
    95     86     87 1
    96     86     88 1
    97     89     90 1
    98     89     91 1
    99     89     92 1
   100     92     93 1
   101     92     94 1
   102     96     97 1
   103     96     98 1
   104     96     99 1
   105     99    100 1
   106    100    101 1
   107    100    102 1
   108    100    103 1
   109    103    104 1
   110    103    105 1
   111    103    125 1
   112    105    106 1
   113    106    107 1
   114    106    108 1
   115    106    122 1
   116    108    109 1
   117    108    111 1
   118    109    110 1
   119    109    117 1
   120    111    112 1
   121    111    113 1
   122    113    114 1
   123    113    115 1
   124    115    116 1
   125    115    117 1
   126    117    118 1
   127    118    119 1
   128    118    120 1
   129    118    121 1
   130    122    123 1
   131    122    124 1
   132    122    125 1
   133    125    126 1
   134    125    127 1
   135    128    129 1
   136    128    130 1
   137    128    131 1
   138    131    132 1
   139    132    133 1
   140    132    134 1
   141    132    135 1
   142    135    136 1
   143    135    137 1
   144    135    157 1
   145    137    138 1
   146    138    139 1
   147    138    140 1
   148    138    154 1
   149    140    141 1
   150    140    143 1
   151    141    142 1
   152    141    149 1
   153    143    144 1
   154    143    145 1
   155    145    146 1
   156    145    147 1
   157    147    148 1
   158    147    149 1
   159    149    150 1
   160    150    151 1
   161    150    152 1
   162    150    153 1
   163    154    155 1
   164    154    156 1
   165    154    157 1
   166    157    158 1
   167    157    159 1
   168    159    160 1
   169    161    162 1
   170    161    190 1
   171    162    163 1
   172    162    164 1
   173    162    165 1
   174    165    166 1
   175    165    167 1
   176    165    187 1
   177    167    168 1
   178    168    169 1
   179    168    170 1
   180    168    184 1
   181    170    171 1
   182    170    173 1
   183    171    172 1
   184    171    179 1
   185    173    174 1
   186    173    175 1
   187    175    176 1
   188    175    177 1
   189    177    178 1
   190    177    179 1
   191    179    180 1
   192    180    181 1
   193    180    182 1
   194    180    183 1
   195    184    185 1
   196    184    186 1
   197    184    187 1
   198    187    188 1
   199    187    189 1
   200    191    192 1
   201    191    193 1
   202    191    194 1
   203    194    195 1
   204    195    196 1
   205    195    197 1
   206    195    198 1
   207    198    199 1
   208    198    200 1
   209    198    218 1
   210    200    201 1
   211    201    202 1
   212    201    203 1
   213    201    215 1
   214    203    204 1
   215    203    208 1
   216    204    205 1
   217    204    206 1
   218    206    207 1
   219    206    211 1
   220    208    209 1
   221    208    210 1
   222    210    211 1
   223    211    212 1
   224    212    213 1
   225    212    214 1
   226    215    216 1
   227    215    217 1
   228    215    218 1
   229    218    219 1
   230    218    220 1
   231    221    222 1
   232    221    223 1
   233    221    224 1
   234    224    225 1
   235    225    226 1
   236    225    227 1
   237    225    228 1
   238    228    229 1
   239    228    230 1
   240    228    248 1
   241    230    231 1
   242    231    232 1
   243    231    233 1
   244    231    245 1
   245    233    234 1
   246    233    238 1
   247    234    235 1
   248    234    236 1
   249    236    237 1
   250    236    241 1
   251    238    239 1
   252    238    240 1
   253    240    241 1
   254    241    242 1
   255    242    243 1
   256    242    244 1
   257    245    246 1
   258    245    247 1
   259    245    248 1
   260    248    249 1
   261    248    250 1
   262    250    251 1
   263    252    253 1
   264    252    279 1
   265    253    254 1
   266    253    255 1
   267    253    256 1
   268    256    257 1
   269    256    258 1
   270    256    276 1
   271    258    259 1
   272    259    260 1
   273    259    261 1
   274    259    273 1
   275    261    262 1
   276    261    266 1
   277    262    263 1
   278    262    264 1
   279    264    265 1
   280    264    269 1
   281    266    267 1
   282    266    268 1
   283    268    269 1
   284    269    270 1
   285    270    271 1
   286    270    272 1
   287    273    274 1
   288    273    275 1
   289    273    276 1
   290    276    277 1
   291    276    278 1
   292    280    281 1
   293    280    282 1
   294    280    283 1
   295    283    284 1
   296    284    285 1
   297    284    286 1
   298    284    287 1
   299    287    288 1
   300    287    289 1
   301    287    310 1
   302    289    290 1
   303    290    291 1
   304    290    292 1
   305    290    307 1
   306    292    293 1
   307    292    305 1
   308    293    297 1
   309    293    303 1
   310    294    295 1
   311    294    296 1
   312    294    298 1
   313    297    298 1
   314    298    299 1
   315    299    300 1
   316    299    301 1
   317    301    302 1
   318    301    303 1
   319    303    304 1
   320    304    305 1
   321    305    306 1
   322    307    308 1
   323    307    309 1
   324    307    310 1
   325    310    311 1
   326    310    312 1
   327    313    314 1
   328    313    315 1
   329    313    316 1
   330    316    317 1
   331    317    318 1
   332    317    319 1
   333    317    320 1
   334    320    321 1
   335    320    322 1
   336    320    343 1
   337    322    323 1
   338    323    324 1
   339    323    325 1
   340    323    340 1
   341    325    326 1
   342    325    338 1
   343    326    330 1
   344    326    336 1
   345    327    328 1
   346    327    329 1
   347    327    331 1
   348    330    331 1
   349    331    332 1
   350    332    333 1
   351    332    334 1
   352    334    335 1
   353    334    336 1
   354    336    337 1
   355    337    338 1
   356    338    339 1
   357    340    341 1
   358    340    342 1
   359    340    343 1
   360    343    344 1
   361    343    345 1
   362    345    346 1
   363    347    348 1
   364    347    377 1
   365    348    349 1
   366    348    350 1
   367    348    351 1
   368    351    352 1
   369    351    353 1
   370    351    374 1
   371    353    354 1
   372    354    355 1
   373    354    356 1
   374    354    371 1
   375    356    357 1
   376    356    369 1
   377    357    361 1
   378    357    367 1
   379    358    359 1
   380    358    360 1
   381    358    362 1
   382    361    362 1
   383    362    363 1
   384    363    364 1
   385    363    365 1
   386    365    366 1
   387    365    367 1
   388    367    368 1
   389    368    369 1
   390    369    370 1
   391    371    372 1
   392    371    373 1
   393    371    374 1
   394    374    375 1
   395    374    376 1
@<TRIPOS>SUBSTRUCTURE
    1       DA      1 ****               0 ****  **** 
    2      DA3     33 ****               0 ****  **** 
    3      DA5     66 ****               0 ****  **** 
    4       DT     96 ****               0 ****  **** 
    5      DT3    128 ****               0 ****  **** 
    6      DT5    161 ****               0 ****  **** 
    7       DC    191 ****               0 ****  **** 
    8      DC3    221 ****               0 ****  **** 
    9      DC5    252 ****               0 ****  **** 
   10       DG    280 ****               0 ****  **** 
   11      DG3    313 ****               0 ****  **** 
   12      DG5    347 ****               0 ****  **** 
