@<TRIPOS>MOLECULE
A
 380 398 12 0 1
SMALL
USER_CHARGES
@<TRIPOS>ATOM
     1    P    4.233    4.349    4.839    P     1        A   1.500000
     2  OP2    4.146    5.073    6.127  ON3     1        A  -0.780000
     3  OP1    5.209    3.240    4.928  ON3     1        A  -0.780000
     4  O5'    4.483    5.313    3.587  ON2     1        A  -0.570000
     5  C5'    4.119    4.856    2.271 CN8B     1        A  -0.080000
     6  H5'    3.050    4.644    2.242  HN8     1        A   0.090000
     7 H5''    4.675    3.949    2.033  HN8     1        A   0.090000
     8  C4'    4.443    5.926    1.241  CN7     1        A   0.160000
     9  H4'    4.507    5.472    0.252  HN7     1        A   0.090000
    10  O4'    3.316    6.849    1.148 ON6B     1        A  -0.500000
    11  C1'    3.636    8.075    1.789 CN7B     1        A   0.160000
    12  H1'    3.576    8.889    1.067  HN7     1        A   0.090000
    13   N9    2.548    8.425    2.792  NN2     1        A  -0.050000
    14   C5    0.824    9.438    3.694  CN5     1        A   0.280000
    15   N7    1.319    8.566    4.657  NN4     1        A  -0.710000
    16   C8    2.332    7.996    4.075  CN4     1        A   0.340000
    17   H8    3.006    7.284    4.527  HN3     1        A   0.120000
    18   N1   -0.464   11.045    2.579 NN3A     1        A  -0.740000
    19   C2    0.346   10.862    1.539  CN4     1        A   0.500000
    20   H2    0.191   11.423    0.630  HN3     1        A   0.130000
    21   N3    1.381   10.052    1.421 NN3A     1        A  -0.750000
    22   C4    1.573    9.351    2.559  CN5     1        A   0.430000
    23   C6   -0.250   10.335    3.696  CN2     1        A   0.460000
    24   N6   -1.062   10.515    4.746  NN1     1        A  -0.770000
    25  H61   -1.822   11.178    4.689  HN1     1        A   0.380000
    26  H62   -0.914    9.988    5.595  HN1     1        A   0.380000
    27  C2'    5.019    7.922    2.425 CN7B     1        A   0.140000
    28  H2'    5.491    7.928    3.407  HN7     1        A   0.090000
    29  O2'    5.218    9.190    1.794  ON5     1        A  -0.660000
    30 HO2'    4.816    9.852    2.360  HN5     1        A   0.430000
    31  C3'    5.641    6.820    1.565  CN7     1        A   0.010000
    32  H3'    6.363    6.260    2.160  HN7     1        A   0.090000
    33  O3'    6.280    7.449    0.464  ON2     1        A  -0.570000
    34    P    7.550    8.411    0.696    P     2       A3   1.500000
    35  OP1    7.131    9.529    1.570  ON3     2       A3  -0.780000
    36  OP2    7.996    8.915   -0.622  ON3     2       A3  -0.780000
    37  O5'    8.608    7.430    1.388  ON2     2       A3  -0.570000
    38  C5'    8.150    6.505    2.392 CN8B     2       A3  -0.080000
    39 H5''    7.706    7.057    3.220  HN8     2       A3   0.090000
    40  H5'    7.403    5.839    1.959  HN8     2       A3   0.090000
    41  C4'    9.316    5.679    2.909  CN7     2       A3   0.160000
    42  H4'    9.059    5.252    3.878  HN7     2       A3   0.090000
    43  O4'    9.499    4.522    2.037 ON6B     2       A3  -0.500000
    44  C1'   10.642    4.707    1.215 CN7B     2       A3   0.160000
    45  H1'   11.360    3.910    1.406  HN7     2       A3   0.090000
    46   N9   10.264    4.486   -0.241  NN2     2       A3  -0.050000
    47   C5   10.113    3.531   -2.210  CN5     2       A3   0.280000
    48   N7    9.557    4.798   -2.342  NN4     2       A3  -0.710000
    49   C8    9.671    5.316   -1.155  CN4     2       A3   0.340000
    50   H8    9.392    6.320   -0.872  HN3     2       A3   0.120000
    51   N1   10.878    1.364   -2.660 NN3A     2       A3  -0.740000
    52   C2   11.251    1.312   -1.384  CN4     2       A3   0.500000
    53   H2   11.724    0.422   -0.996  HN3     2       A3   0.130000
    54   N3   11.134    2.230   -0.443 NN3A     2       A3  -0.750000
    55   C4   10.543    3.342   -0.930  CN5     2       A3   0.430000
    56   C6   10.294    2.480   -3.117  CN2     2       A3   0.460000
    57   N6    9.916    2.538   -4.401  NN1     2       A3  -0.770000
    58  H62    9.475    3.372   -4.760  HN1     2       A3   0.380000
    59  H61   10.073    1.747   -5.010  HN1     2       A3   0.380000
    60  C2'   11.194    6.107    1.491 CN7B     2       A3   0.140000
    61  H2'   11.362    7.054    0.979  HN7     2       A3   0.090000
    62  O2'   12.424    5.380    1.562  ON5     2       A3  -0.660000
    63 HO2'   12.714    5.231    0.659  HN5     2       A3   0.430000
    64  C3'   10.678    6.376    2.906  CN7     2       A3   0.140000
    65  H3'   10.538    7.448    3.044  HN7     2       A3   0.090000
    66  O3'   11.648    5.876    3.815  ON5     2       A3  -0.660000
    67 HO3'   12.494    6.329    3.795  HN5     2       A3   0.430000
    68  O5'    1.958    1.721    0.930  ON5     3       A5  -0.660000
    69  C5'    0.788    2.111    1.674 CN8B     3       A5   0.050000
    70 H5''    0.351    3.002    1.223  HN8     3       A5   0.090000
    71  H5'    0.060    1.301    1.657  HN8     3       A5   0.090000
    72  C4'    1.166    2.413    3.115  CN7     3       A5   0.160000
    73  H4'    0.392    3.030    3.572  HN7     3       A5   0.090000
    74  O4'    1.142    1.170    3.880 ON6B     3       A5  -0.500000
    75  C1'    2.468    0.738    4.147 CN7B     3       A5   0.160000
    76  H1'    2.623    0.685    5.225  HN7     3       A5   0.090000
    77   N9    2.632   -0.708    3.706  NN2     3       A5  -0.050000
    78   C5    2.854   -2.887    3.824  CN5     3       A5   0.280000
    79   N7    3.015   -2.545    2.487  NN4     3       A5  -0.710000
    80   C8    2.875   -1.253    2.473  CN4     3       A5   0.340000
    81   H8    2.982   -0.612    1.611  HN3     3       A5   0.120000
    82   N1    2.692   -4.099    5.821 NN3A     3       A5  -0.740000
    83   C2    2.474   -2.933    6.423  CN4     3       A5   0.500000
    84   H2    2.312   -2.898    7.490  HN3     3       A5   0.130000
    85   N3    2.419   -1.723    5.900 NN3A     3       A5  -0.750000
    86   C4    2.621   -1.767    4.566  CN5     3       A5   0.430000
    87   C6    2.890   -4.115    4.496  CN2     3       A5   0.460000
    88   N6    3.110   -5.287    3.885  NN1     3       A5  -0.770000
    89  H61    3.124   -6.142    4.422  HN1     3       A5   0.380000
    90  H62    3.261   -5.315    2.886  HN1     3       A5   0.380000
    91  C2'    3.425    1.699    3.439 CN7B     3       A5   0.140000
    92  H2'    4.178    1.697    2.651  HN7     3       A5   0.090000
    93  O2'    4.071    1.664    4.714  ON5     3       A5  -0.660000
    94 HO2'    4.591    0.858    4.743  HN5     3       A5   0.430000
    95  C3'    2.576    2.967    3.331  CN7     3       A5   0.010000
    96  H3'    2.882    3.536    2.453  HN7     3       A5   0.090000
    97  O3'    2.786    3.721    4.516  ON2     3       A5  -0.570000
    98 HO5'    1.866    1.500   -0.000  HN5     3       A5   0.430000
    99    P    4.233    4.349    4.839    P     4        U   1.500000
   100  OP2    4.146    5.073    6.127  ON3     4        U  -0.780000
   101  OP1    5.209    3.240    4.928  ON3     4        U  -0.780000
   102  O5'    4.483    5.312    3.587  ON2     4        U  -0.570000
   103  C5'    4.119    4.856    2.271 CN8B     4        U  -0.080000
   104 H5''    4.675    3.949    2.033  HN8     4        U   0.090000
   105  H5'    3.050    4.644    2.242  HN8     4        U   0.090000
   106  C4'    4.443    5.926    1.241  CN7     4        U   0.160000
   107  H4'    4.507    5.472    0.252  HN7     4        U   0.090000
   108  O4'    3.316    6.849    1.148 ON6B     4        U  -0.500000
   109  C1'    3.636    8.075    1.789 CN7B     4        U   0.160000
   110  H1'    3.576    8.889    1.067  HN7     4        U   0.090000
   111   N1    2.541    8.427    2.798 NN2B     4        U  -0.340000
   112   C6    2.485    7.890    4.057  CN3     4        U   0.200000
   113   H6    3.236    7.183    4.377  HN3     4        U   0.140000
   114   C2    1.644    9.368    2.365 CN1T     4        U   0.550000
   115   O2    1.680    9.856    1.247  ON1     4        U  -0.450000
   116   N3    0.684    9.734    3.285 NN2U     4        U  -0.460000
   117   H3   -0.043   10.481    2.966  HN2     4        U   0.360000
   118   C4    0.551    9.247    4.570  CN1     4        U   0.530000
   119   O4   -0.350    9.652    5.302  ON1     4        U  -0.480000
   120   C5    1.540    8.265    4.931  CN3     4        U  -0.150000
   121   H5    1.514    7.824    5.927  HN3     4        U   0.100000
   122  C2'    5.019    7.922    2.425 CN7B     4        U   0.140000
   123  H2'    5.491    7.928    3.407  HN7     4        U   0.090000
   124  O2'    5.218    9.190    1.794  ON5     4        U  -0.660000
   125 HO2'    4.816    9.852    2.360  HN5     4        U   0.430000
   126  C3'    5.641    6.820    1.566  CN7     4        U   0.010000
   127  H3'    6.363    6.260    2.160  HN7     4        U   0.090000
   128  O3'    6.280    7.449    0.464  ON2     4        U  -0.570000
   129    P    7.550    8.411    0.696    P     5       U3   1.500000
   130  OP2    7.996    8.915   -0.622  ON3     5       U3  -0.780000
   131  OP1    7.131    9.529    1.570  ON3     5       U3  -0.780000
   132  O5'    8.608    7.430    1.388  ON2     5       U3  -0.570000
   133  C5'    8.150    6.505    2.392 CN8B     5       U3  -0.080000
   134  H5'    7.403    5.839    1.959  HN8     5       U3   0.090000
   135 H5''    7.706    7.057    3.220  HN8     5       U3   0.090000
   136  C4'    9.316    5.679    2.909  CN7     5       U3   0.160000
   137  H4'    9.059    5.252    3.878  HN7     5       U3   0.090000
   138  O4'    9.499    4.522    2.037 ON6B     5       U3  -0.500000
   139  C1'   10.642    4.707    1.215 CN7B     5       U3   0.160000
   140  H1'   11.360    3.910    1.406  HN7     5       U3   0.090000
   141   N1   10.262    4.485   -0.250 NN2B     5       U3  -0.340000
   142   C6    9.665    5.447   -1.022  CN3     5       U3   0.200000
   143   H6    9.443    6.416   -0.600  HN3     5       U3   0.140000
   144   C2   10.613    3.260   -0.753 CN1T     5       U3   0.550000
   145   O2   11.145    2.392   -0.080  ON1     5       U3  -0.450000
   146   N3   10.324    3.067   -2.089 NN2U     5       U3  -0.460000
   147   H3   10.594    2.100   -2.515  HN2     5       U3   0.360000
   148   C4    9.728    3.976   -2.939  CN1     5       U3   0.530000
   149   O4    9.520    3.688   -4.116  ON1     5       U3  -0.480000
   150   C5    9.397    5.231   -2.317  CN3     5       U3  -0.150000
   151   H5    8.922    6.011   -2.912  HN3     5       U3   0.100000
   152  C2'   11.194    6.107    1.491 CN7B     5       U3   0.140000
   153  H2'   11.362    7.054    0.979  HN7     5       U3   0.090000
   154  O2'   12.424    5.380    1.562  ON5     5       U3  -0.660000
   155 HO2'   12.714    5.231    0.659  HN5     5       U3   0.430000
   156  C3'   10.678    6.376    2.906  CN7     5       U3   0.140000
   157  H3'   10.538    7.448    3.044  HN7     5       U3   0.090000
   158  O3'   11.648    5.876    3.815  ON5     5       U3  -0.660000
   159 HO3'   12.494    6.329    3.795  HN5     5       U3   0.430000
   160  O5'    1.958    1.721    0.930  ON5     6       U5  -0.660000
   161  C5'    0.788    2.111    1.674 CN8B     6       U5   0.050000
   162  H5'    0.060    1.301    1.657  HN8     6       U5   0.090000
   163 H5''    0.351    3.002    1.223  HN8     6       U5   0.090000
   164  C4'    1.166    2.413    3.115  CN7     6       U5   0.160000
   165  H4'    0.392    3.030    3.572  HN7     6       U5   0.090000
   166  O4'    1.142    1.170    3.880 ON6B     6       U5  -0.500000
   167  C1'    2.468    0.738    4.147 CN7B     6       U5   0.160000
   168  H1'    2.623    0.685    5.225  HN7     6       U5   0.090000
   169   N1    2.633   -0.717    3.703 NN2B     6       U5  -0.340000
   170   C6    2.876   -1.079    2.405  CN3     6       U5   0.200000
   171   H6    2.959   -0.321    1.639  HN3     6       U5   0.140000
   172   C2    2.573   -1.635    4.718 CN1T     6       U5   0.550000
   173   O2    2.357   -1.330    5.880  ON1     6       U5  -0.450000
   174   N3    2.773   -2.947    4.339 NN2U     6       U5  -0.460000
   175   H3    2.731   -3.698    5.127  HN2     6       U5   0.360000
   176   C4    3.023   -3.401    3.060  CN1     6       U5   0.530000
   177   O4    3.186   -4.601    2.843  ON1     6       U5  -0.480000
   178   C5    3.067   -2.361    2.065  CN3     6       U5  -0.150000
   179   H5    3.259   -2.627    1.025  HN3     6       U5   0.100000
   180  C2'    3.425    1.699    3.439 CN7B     6       U5   0.140000
   181  H2'    4.178    1.697    2.651  HN7     6       U5   0.090000
   182  O2'    4.071    1.664    4.714  ON5     6       U5  -0.660000
   183 HO2'    4.591    0.858    4.743  HN5     6       U5   0.430000
   184  C3'    2.576    2.967    3.331  CN7     6       U5   0.010000
   185  H3'    2.882    3.536    2.453  HN7     6       U5   0.090000
   186  O3'    2.786    3.721    4.516  ON2     6       U5  -0.570000
   187 HO5'    1.866    1.500   -0.000  HN5     6       U5   0.430000
   188    P    4.233    4.349    4.839    P     7        C   1.500000
   189  OP2    4.146    5.073    6.127  ON3     7        C  -0.780000
   190  OP1    5.209    3.240    4.928  ON3     7        C  -0.780000
   191  O5'    4.483    5.312    3.587  ON2     7        C  -0.570000
   192  C5'    4.119    4.856    2.271 CN8B     7        C  -0.080000
   193  H5'    3.050    4.644    2.242  HN8     7        C   0.090000
   194 H5''    4.675    3.949    2.033  HN8     7        C   0.090000
   195  C4'    4.443    5.926    1.241  CN7     7        C   0.160000
   196  H4'    4.507    5.472    0.252  HN7     7        C   0.090000
   197  O4'    3.316    6.849    1.148 ON6B     7        C  -0.500000
   198  C1'    3.636    8.075    1.789 CN7B     7        C   0.160000
   199  H1'    3.576    8.889    1.067  HN7     7        C   0.090000
   200   N1    2.551    8.385    2.762  NN2     7        C  -0.130000
   201   C6    2.527    7.812    3.995  CN3     7        C   0.050000
   202   H6    3.304    7.118    4.283  HN3     7        C   0.170000
   203   C5    1.536    8.097    4.881  CN3     7        C  -0.130000
   204   H5    1.533    7.628    5.865  HN3     7        C   0.070000
   205   C2    1.563    9.279    2.374  CN1     7        C   0.520000
   206   O2    1.626    9.776    1.240 ON1C     7        C  -0.490000
   207   N3    0.563    9.577    3.246  NN3     7        C  -0.660000
   208   C4    0.532    9.021    4.454  CN2     7        C   0.650000
   209   N4   -0.460    9.342    5.263  NN1     7        C  -0.750000
   210  H42   -0.514    8.939    6.188  HN1     7        C   0.370000
   211  H41   -1.149    9.998    4.924  HN1     7        C   0.330000
   212  C2'    5.019    7.922    2.425 CN7B     7        C   0.140000
   213  H2'    5.491    7.928    3.407  HN7     7        C   0.090000
   214  O2'    5.218    9.190    1.794  ON5     7        C  -0.660000
   215 HO2'    4.816    9.852    2.360  HN5     7        C   0.430000
   216  C3'    5.641    6.820    1.566  CN7     7        C   0.010000
   217  H3'    6.363    6.260    2.160  HN7     7        C   0.090000
   218  O3'    6.280    7.449    0.464  ON2     7        C  -0.570000
   219    P    7.550    8.411    0.696    P     8       C3   1.500000
   220  OP2    7.996    8.915   -0.622  ON3     8       C3  -0.780000
   221  OP1    7.131    9.529    1.570  ON3     8       C3  -0.780000
   222  O5'    8.608    7.430    1.388  ON2     8       C3  -0.570000
   223  C5'    8.150    6.505    2.392 CN8B     8       C3  -0.080000
   224  H5'    7.403    5.839    1.959  HN8     8       C3   0.090000
   225 H5''    7.706    7.057    3.220  HN8     8       C3   0.090000
   226  C4'    9.316    5.679    2.909  CN7     8       C3   0.160000
   227  H4'    9.059    5.252    3.878  HN7     8       C3   0.090000
   228  O4'    9.499    4.522    2.037 ON6B     8       C3  -0.500000
   229  C1'   10.642    4.707    1.215 CN7B     8       C3   0.160000
   230  H1'   11.360    3.910    1.406  HN7     8       C3   0.090000
   231   N1   10.235    4.483   -0.201  NN2     8       C3  -0.130000
   232   C6    9.628    5.464   -0.921  CN3     8       C3   0.050000
   233   H6    9.433    6.425   -0.468  HN3     8       C3   0.170000
   234   C5    9.258    5.258   -2.213  CN3     8       C3  -0.130000
   235   H5    8.773    6.055   -2.775  HN3     8       C3   0.070000
   236   C2   10.494    3.243   -0.765  CN1     8       C3   0.520000
   237   O2   11.050    2.379   -0.070 ON1C     8       C3  -0.490000
   238   N3   10.131    3.016   -2.057  NN3     8       C3  -0.660000
   239   C4    9.537    3.970   -2.768  CN2     8       C3   0.650000
   240   N4    9.205    3.701   -4.017  NN1     8       C3  -0.750000
   241  H41    9.419    2.780   -4.372  HN1     8       C3   0.370000
   242  H42    8.752    4.402   -4.586  HN1     8       C3   0.330000
   243  C2'   11.194    6.107    1.491 CN7B     8       C3   0.140000
   244  H2'   11.362    7.054    0.979  HN7     8       C3   0.090000
   245  O2'   12.424    5.380    1.562  ON5     8       C3  -0.660000
   246 HO2'   12.714    5.231    0.659  HN5     8       C3   0.430000
   247  C3'   10.678    6.376    2.906  CN7     8       C3   0.140000
   248  H3'   10.538    7.448    3.044  HN7     8       C3   0.090000
   249  O3'   11.648    5.876    3.815  ON5     8       C3  -0.660000
   250 HO3'   12.494    6.329    3.795  HN5     8       C3   0.430000
   251  O5'    1.958    1.721    0.930  ON5     9       C5  -0.660000
   252  C5'    0.788    2.111    1.674 CN8B     9       C5   0.050000
   253  H5'    0.060    1.301    1.657  HN8     9       C5   0.090000
   254 H5''    0.351    3.002    1.223  HN8     9       C5   0.090000
   255  C4'    1.166    2.413    3.115  CN7     9       C5   0.160000
   256  H4'    0.392    3.030    3.572  HN7     9       C5   0.090000
   257  O4'    1.142    1.170    3.880 ON6B     9       C5  -0.500000
   258  C1'    2.468    0.738    4.147 CN7B     9       C5   0.160000
   259  H1'    2.623    0.685    5.225  HN7     9       C5   0.090000
   260   N1    2.592   -0.679    3.703  NN2     9       C5  -0.130000
   261   C6    2.814   -0.990    2.398  CN3     9       C5   0.050000
   262   H6    2.904   -0.203    1.664  HN3     9       C5   0.170000
   263   C5    2.926   -2.284    1.995  CN3     9       C5  -0.130000
   264   H5    3.105   -2.514    0.945  HN3     9       C5   0.070000
   265   C2    2.473   -1.676    4.662  CN1     9       C5   0.520000
   266   O2    2.271   -1.344    5.839 ON1C     9       C5  -0.490000
   267   N3    2.582   -2.976    4.279  NN3     9       C5  -0.660000
   268   C4    2.800   -3.289    3.005  CN2     9       C5   0.650000
   269   N4    2.898   -4.565    2.684  NN1     9       C5  -0.750000
   270  H41    2.803   -5.245    3.425  HN1     9       C5   0.370000
   271  H42    3.063   -4.838    1.726  HN1     9       C5   0.330000
   272  C2'    3.425    1.699    3.439 CN7B     9       C5   0.140000
   273  H2'    4.178    1.697    2.651  HN7     9       C5   0.090000
   274  O2'    4.071    1.664    4.714  ON5     9       C5  -0.660000
   275 HO2'    4.591    0.858    4.743  HN5     9       C5   0.430000
   276  C3'    2.576    2.967    3.331  CN7     9       C5   0.010000
   277  H3'    2.882    3.536    2.453  HN7     9       C5   0.090000
   278  O3'    2.786    3.721    4.516  ON2     9       C5  -0.570000
   279 HO5'    1.866    1.500   -0.000  HN5     9       C5   0.430000
   280    P    4.233    4.349    4.839    P    10        G   1.500000
   281  OP1    5.209    3.240    4.928  ON3    10        G  -0.780000
   282  OP2    4.146    5.073    6.127  ON3    10        G  -0.780000
   283  O5'    4.483    5.312    3.587  ON2    10        G  -0.570000
   284  C5'    4.119    4.856    2.271 CN8B    10        G  -0.080000
   285 H5''    4.675    3.949    2.033  HN8    10        G   0.090000
   286  H5'    3.050    4.644    2.242  HN8    10        G   0.090000
   287  C4'    4.443    5.926    1.241  CN7    10        G   0.160000
   288  H4'    4.507    5.472    0.252  HN7    10        G   0.090000
   289  O4'    3.316    6.849    1.148 ON6B    10        G  -0.500000
   290  C1'    3.636    8.075    1.789 CN7B    10        G   0.160000
   291  H1'    3.576    8.889    1.067  HN7    10        G   0.090000
   292   N9    2.550    8.384    2.762 NN2B    10        G  -0.020000
   293   C4    1.497    9.240    2.553  CN5    10        G   0.260000
   294   N2   -0.169   11.446    0.417  NN1    10        G  -0.680000
   295  H22    0.424   11.405   -0.399  HN1    10        G   0.320000
   296  H21   -0.983   12.040    0.352  HN1    10        G   0.350000
   297   N3    1.292    9.937    1.404 NN3G    10        G  -0.740000
   298   C2    0.195   10.688    1.460  CN2    10        G   0.750000
   299   N1   -0.629   10.743    2.566 NN2G    10        G  -0.340000
   300   H1   -1.431   11.337    2.512  HN2    10        G   0.260000
   301   C6   -0.433   10.033    3.756  CN1    10        G   0.540000
   302   O6   -1.232   10.158    4.682  ON1    10        G  -0.510000
   303   C5    0.737    9.230    3.693 CN5G    10        G   0.000000
   304   N7    1.297    8.378    4.638  NN4    10        G  -0.600000
   305   C8    2.363    7.905    4.042  CN4    10        G   0.250000
   306   H8    3.066    7.200    4.463  HN3    10        G   0.160000
   307  C2'    5.019    7.922    2.425 CN7B    10        G   0.140000
   308  H2'    5.491    7.928    3.407  HN7    10        G   0.090000
   309  O2'    5.218    9.190    1.794  ON5    10        G  -0.660000
   310 HO2'    4.816    9.852    2.360  HN5    10        G   0.430000
   311  C3'    5.641    6.820    1.566  CN7    10        G   0.010000
   312  H3'    6.363    6.260    2.160  HN7    10        G   0.090000
   313  O3'    6.280    7.449    0.464  ON2    10        G  -0.570000
   314    P    7.550    8.411    0.696    P    11       G3   1.500000
   315  OP1    7.131    9.529    1.570  ON3    11       G3  -0.780000
   316  OP2    7.996    8.915   -0.622  ON3    11       G3  -0.780000
   317  O5'    8.608    7.430    1.388  ON2    11       G3  -0.570000
   318  C5'    8.150    6.505    2.392 CN8B    11       G3  -0.080000
   319 H5''    7.706    7.057    3.220  HN8    11       G3   0.090000
   320  H5'    7.403    5.839    1.959  HN8    11       G3   0.090000
   321  C4'    9.316    5.679    2.909  CN7    11       G3   0.160000
   322  H4'    9.059    5.252    3.878  HN7    11       G3   0.090000
   323  O4'    9.499    4.522    2.037 ON6B    11       G3  -0.500000
   324  C1'   10.642    4.707    1.215 CN7B    11       G3   0.160000
   325  H1'   11.360    3.910    1.406  HN7    11       G3   0.090000
   326   N9   10.234    4.483   -0.201 NN2B    11       G3  -0.020000
   327   C4   10.410    3.327   -0.920  CN5    11       G3   0.260000
   328   N2   11.570    0.033   -1.025  NN1    11       G3  -0.680000
   329  H22   11.926   -0.073   -0.086  HN1    11       G3   0.320000
   330  H21   11.640   -0.774   -1.627  HN1    11       G3   0.350000
   331   N3   10.991    2.200   -0.429 NN3G    11       G3  -0.740000
   332   C2   11.032    1.222   -1.330  CN2    11       G3   0.750000
   333   N1   10.537    1.352   -2.612 NN2G    11       G3  -0.340000
   334   H1   10.614    0.560   -3.217  HN2    11       G3   0.260000
   335   C6    9.937    2.504   -3.133  CN1    11       G3   0.540000
   336   O6    9.531    2.511   -4.294  ON1    11       G3  -0.510000
   337   C5    9.892    3.546   -2.169 CN5G    11       G3   0.000000
   338   N7    9.389    4.838   -2.262  NN4    11       G3  -0.600000
   339   C8    9.614    5.350   -1.077  CN4    11       G3   0.250000
   340   H8    9.359    6.350   -0.759  HN3    11       G3   0.160000
   341  C2'   11.194    6.107    1.491 CN7B    11       G3   0.140000
   342  H2'   11.362    7.054    0.979  HN7    11       G3   0.090000
   343  O2'   12.424    5.380    1.562  ON5    11       G3  -0.660000
   344 HO2'   12.714    5.231    0.659  HN5    11       G3   0.430000
   345  C3'   10.678    6.376    2.906  CN7    11       G3   0.140000
   346  H3'   10.538    7.448    3.044  HN7    11       G3   0.090000
   347  O3'   11.648    5.876    3.815  ON5    11       G3  -0.660000
   348 HO3'   12.494    6.329    3.795  HN5    11       G3   0.430000
   349  O5'    1.958    1.721    0.930  ON5    12       G5  -0.660000
   350  C5'    0.788    2.111    1.674 CN8B    12       G5   0.050000
   351  H5'    0.060    1.301    1.657  HN8    12       G5   0.090000
   352 H5''    0.351    3.002    1.223  HN8    12       G5   0.090000
   353  C4'    1.166    2.413    3.115  CN7    12       G5   0.160000
   354  H4'    0.392    3.030    3.572  HN7    12       G5   0.090000
   355  O4'    1.142    1.170    3.880 ON6B    12       G5  -0.500000
   356  C1'    2.468    0.738    4.147 CN7B    12       G5   0.160000
   357  H1'    2.623    0.685    5.225  HN7    12       G5   0.090000
   358   N9    2.591   -0.679    3.703 NN2B    12       G5  -0.020000
   359   C4    2.503   -1.789    4.506  CN5    12       G5   0.260000
   360   N2    2.028   -3.123    7.700  NN1    12       G5  -0.680000
   361  H21    1.963   -3.996    8.204  HN1    12       G5   0.320000
   362  H22    1.904   -2.280    8.242  HN1    12       G5   0.350000
   363   N3    2.284   -1.749    5.848 NN3G    12       G5  -0.740000
   364   C2    2.236   -2.965    6.385  CN2    12       G5   0.750000
   365   N1    2.392   -4.124    5.653 NN2G    12       G5  -0.340000
   366   H1    2.340   -4.992    6.148  HN2    12       G5   0.260000
   367   C6    2.618   -4.183    4.273  CN1    12       G5   0.540000
   368   O6    2.745   -5.275    3.720  ON1    12       G5  -0.510000
   369   C5    2.667   -2.885    3.700 CN5G    12       G5   0.000000
   370   N7    2.867   -2.488    2.383  NN4    12       G5  -0.600000
   371   C8    2.813   -1.180    2.437  CN4    12       G5   0.250000
   372   H8    2.924   -0.505    1.601  HN3    12       G5   0.160000
   373  C2'    3.425    1.699    3.439 CN7B    12       G5   0.140000
   374  H2'    4.178    1.697    2.651  HN7    12       G5   0.090000
   375  O2'    4.071    1.664    4.714  ON5    12       G5  -0.660000
   376 HO2'    4.591    0.858    4.743  HN5    12       G5   0.430000
   377  C3'    2.576    2.967    3.331  CN7    12       G5   0.010000
   378  H3'    2.882    3.536    2.453  HN7    12       G5   0.090000
   379  O3'    2.786    3.721    4.516  ON2    12       G5  -0.570000
   380 HO5'    1.866    1.500   -0.000  HN5    12       G5   0.430000
@<TRIPOS>BOND
     1      1      2 1
     2      1      3 1
     3      1      4 1
     4      4      5 1
     5      5      6 1
     6      5      7 1
     7      5      8 1
     8      8      9 1
     9      8     10 1
    10      8     31 1
    11     10     11 1
    12     11     12 1
    13     11     13 1
    14     11     27 1
    15     13     16 1
    16     13     22 1
    17     14     15 1
    18     14     22 1
    19     14     23 1
    20     15     16 1
    21     16     17 1
    22     18     19 1
    23     18     23 1
    24     19     20 1
    25     19     21 1
    26     21     22 1
    27     23     24 1
    28     24     25 1
    29     24     26 1
    30     27     28 1
    31     27     29 1
    32     27     31 1
    33     29     30 1
    34     31     32 1
    35     31     33 1
    36     34     35 1
    37     34     36 1
    38     34     37 1
    39     37     38 1
    40     38     39 1
    41     38     40 1
    42     38     41 1
    43     41     42 1
    44     41     43 1
    45     41     64 1
    46     43     44 1
    47     44     45 1
    48     44     46 1
    49     44     60 1
    50     46     49 1
    51     46     55 1
    52     47     48 1
    53     47     55 1
    54     47     56 1
    55     48     49 1
    56     49     50 1
    57     51     52 1
    58     51     56 1
    59     52     53 1
    60     52     54 1
    61     54     55 1
    62     56     57 1
    63     57     58 1
    64     57     59 1
    65     60     61 1
    66     60     62 1
    67     60     64 1
    68     62     63 1
    69     64     65 1
    70     64     66 1
    71     66     67 1
    72     68     69 1
    73     68     98 1
    74     69     70 1
    75     69     71 1
    76     69     72 1
    77     72     73 1
    78     72     74 1
    79     72     95 1
    80     74     75 1
    81     75     76 1
    82     75     77 1
    83     75     91 1
    84     77     80 1
    85     77     86 1
    86     78     79 1
    87     78     86 1
    88     78     87 1
    89     79     80 1
    90     80     81 1
    91     82     83 1
    92     82     87 1
    93     83     84 1
    94     83     85 1
    95     85     86 1
    96     87     88 1
    97     88     89 1
    98     88     90 1
    99     91     92 1
   100     91     93 1
   101     91     95 1
   102     93     94 1
   103     95     96 1
   104     95     97 1
   105     99    100 1
   106     99    101 1
   107     99    102 1
   108    102    103 1
   109    103    104 1
   110    103    105 1
   111    103    106 1
   112    106    107 1
   113    106    108 1
   114    106    126 1
   115    108    109 1
   116    109    110 1
   117    109    111 1
   118    109    122 1
   119    111    112 1
   120    111    114 1
   121    112    113 1
   122    112    120 1
   123    114    115 1
   124    114    116 1
   125    116    117 1
   126    116    118 1
   127    118    119 1
   128    118    120 1
   129    120    121 1
   130    122    123 1
   131    122    124 1
   132    122    126 1
   133    124    125 1
   134    126    127 1
   135    126    128 1
   136    129    130 1
   137    129    131 1
   138    129    132 1
   139    132    133 1
   140    133    134 1
   141    133    135 1
   142    133    136 1
   143    136    137 1
   144    136    138 1
   145    136    156 1
   146    138    139 1
   147    139    140 1
   148    139    141 1
   149    139    152 1
   150    141    142 1
   151    141    144 1
   152    142    143 1
   153    142    150 1
   154    144    145 1
   155    144    146 1
   156    146    147 1
   157    146    148 1
   158    148    149 1
   159    148    150 1
   160    150    151 1
   161    152    153 1
   162    152    154 1
   163    152    156 1
   164    154    155 1
   165    156    157 1
   166    156    158 1
   167    158    159 1
   168    160    161 1
   169    160    187 1
   170    161    162 1
   171    161    163 1
   172    161    164 1
   173    164    165 1
   174    164    166 1
   175    164    184 1
   176    166    167 1
   177    167    168 1
   178    167    169 1
   179    167    180 1
   180    169    170 1
   181    169    172 1
   182    170    171 1
   183    170    178 1
   184    172    173 1
   185    172    174 1
   186    174    175 1
   187    174    176 1
   188    176    177 1
   189    176    178 1
   190    178    179 1
   191    180    181 1
   192    180    182 1
   193    180    184 1
   194    182    183 1
   195    184    185 1
   196    184    186 1
   197    188    189 1
   198    188    190 1
   199    188    191 1
   200    191    192 1
   201    192    193 1
   202    192    194 1
   203    192    195 1
   204    195    196 1
   205    195    197 1
   206    195    216 1
   207    197    198 1
   208    198    199 1
   209    198    200 1
   210    198    212 1
   211    200    201 1
   212    200    205 1
   213    201    202 1
   214    201    203 1
   215    203    204 1
   216    203    208 1
   217    205    206 1
   218    205    207 1
   219    207    208 1
   220    208    209 1
   221    209    210 1
   222    209    211 1
   223    212    213 1
   224    212    214 1
   225    212    216 1
   226    214    215 1
   227    216    217 1
   228    216    218 1
   229    219    220 1
   230    219    221 1
   231    219    222 1
   232    222    223 1
   233    223    224 1
   234    223    225 1
   235    223    226 1
   236    226    227 1
   237    226    228 1
   238    226    247 1
   239    228    229 1
   240    229    230 1
   241    229    231 1
   242    229    243 1
   243    231    232 1
   244    231    236 1
   245    232    233 1
   246    232    234 1
   247    234    235 1
   248    234    239 1
   249    236    237 1
   250    236    238 1
   251    238    239 1
   252    239    240 1
   253    240    241 1
   254    240    242 1
   255    243    244 1
   256    243    245 1
   257    243    247 1
   258    245    246 1
   259    247    248 1
   260    247    249 1
   261    249    250 1
   262    251    252 1
   263    251    279 1
   264    252    253 1
   265    252    254 1
   266    252    255 1
   267    255    256 1
   268    255    257 1
   269    255    276 1
   270    257    258 1
   271    258    259 1
   272    258    260 1
   273    258    272 1
   274    260    261 1
   275    260    265 1
   276    261    262 1
   277    261    263 1
   278    263    264 1
   279    263    268 1
   280    265    266 1
   281    265    267 1
   282    267    268 1
   283    268    269 1
   284    269    270 1
   285    269    271 1
   286    272    273 1
   287    272    274 1
   288    272    276 1
   289    274    275 1
   290    276    277 1
   291    276    278 1
   292    280    281 1
   293    280    282 1
   294    280    283 1
   295    283    284 1
   296    284    285 1
   297    284    286 1
   298    284    287 1
   299    287    288 1
   300    287    289 1
   301    287    311 1
   302    289    290 1
   303    290    291 1
   304    290    292 1
   305    290    307 1
   306    292    293 1
   307    292    305 1
   308    293    297 1
   309    293    303 1
   310    294    295 1
   311    294    296 1
   312    294    298 1
   313    297    298 1
   314    298    299 1
   315    299    300 1
   316    299    301 1
   317    301    302 1
   318    301    303 1
   319    303    304 1
   320    304    305 1
   321    305    306 1
   322    307    308 1
   323    307    309 1
   324    307    311 1
   325    309    310 1
   326    311    312 1
   327    311    313 1
   328    314    315 1
   329    314    316 1
   330    314    317 1
   331    317    318 1
   332    318    319 1
   333    318    320 1
   334    318    321 1
   335    321    322 1
   336    321    323 1
   337    321    345 1
   338    323    324 1
   339    324    325 1
   340    324    326 1
   341    324    341 1
   342    326    327 1
   343    326    339 1
   344    327    331 1
   345    327    337 1
   346    328    329 1
   347    328    330 1
   348    328    332 1
   349    331    332 1
   350    332    333 1
   351    333    334 1
   352    333    335 1
   353    335    336 1
   354    335    337 1
   355    337    338 1
   356    338    339 1
   357    339    340 1
   358    341    342 1
   359    341    343 1
   360    341    345 1
   361    343    344 1
   362    345    346 1
   363    345    347 1
   364    347    348 1
   365    349    350 1
   366    349    380 1
   367    350    351 1
   368    350    352 1
   369    350    353 1
   370    353    354 1
   371    353    355 1
   372    353    377 1
   373    355    356 1
   374    356    357 1
   375    356    358 1
   376    356    373 1
   377    358    359 1
   378    358    371 1
   379    359    363 1
   380    359    369 1
   381    360    361 1
   382    360    362 1
   383    360    364 1
   384    363    364 1
   385    364    365 1
   386    365    366 1
   387    365    367 1
   388    367    368 1
   389    367    369 1
   390    369    370 1
   391    370    371 1
   392    371    372 1
   393    373    374 1
   394    373    375 1
   395    373    377 1
   396    375    376 1
   397    377    378 1
   398    377    379 1
@<TRIPOS>SUBSTRUCTURE
    1        A      1 ****               0 ****  **** 
    2       A3     34 ****               0 ****  **** 
    3       A5     68 ****               0 ****  **** 
    4        U     99 ****               0 ****  **** 
    5       U3    129 ****               0 ****  **** 
    6       U5    160 ****               0 ****  **** 
    7        C    188 ****               0 ****  **** 
    8       C3    219 ****               0 ****  **** 
    9       C5    251 ****               0 ****  **** 
   10        G    280 ****               0 ****  **** 
   11       G3    314 ****               0 ****  **** 
   12       G5    349 ****               0 ****  **** 
